 &coupler_nml
     months = 0,
     days   = 30,
     hours  = 0,
     dt_atmos = 900,
     current_date = 2000,1,1,0,0,0,
     calendar = 'thirty_day' /
